492405
  -OEChem-08262112473D

 15 15  0     0  0  0  0  0  0999 V2000
    2.6924    1.6377   -0.0017 F   0  0  0  0  0  0  0  0  0  0  0  0
   -1.0192   -2.1677    0.0071 O   0  0  0  0  0  0  0  0  0  0  0  0
   -2.4032    0.8017    1.1292 O   0  0  0  0  0  0  0  0  0  0  0  0
    1.2342   -1.6108   -0.0163 N   0  0  0  0  0  0  0  0  0  0  0  0
    0.4419    1.0594    0.0219 N   0  0  0  0  0  0  0  0  0  0  0  0
   -2.4023    0.8152   -1.1973 N   0  0  0  0  0  0  0  0  0  0  0  0
   -0.4657    0.1294    0.0236 C   0  0  0  0  0  0  0  0  0  0  0  0
   -0.1165   -1.3449    0.0035 C   0  0  0  0  0  0  0  0  0  0  0  0
    2.1574   -0.6077   -0.0182 C   0  0  0  0  0  0  0  0  0  0  0  0
    1.7535    0.6653    0.0003 C   0  0  0  0  0  0  0  0  0  0  0  0
   -1.8725    0.6225    0.0480 C   0  0  0  0  0  0  0  0  0  0  0  0
    1.5608   -2.5721   -0.0304 H   0  0  0  0  0  0  0  0  0  0  0  0
    3.1981   -0.9025   -0.0348 H   0  0  0  0  0  0  0  0  0  0  0  0
   -3.3531    1.1487   -1.3156 H   0  0  0  0  0  0  0  0  0  0  0  0
   -1.8742    0.6352   -2.0453 H   0  0  0  0  0  0  0  0  0  0  0  0
  1 10  1  0  0  0  0
  2  8  2  0  0  0  0
  3 11  2  0  0  0  0
  4  8  1  0  0  0  0
  4  9  1  0  0  0  0
  4 12  1  0  0  0  0
  5  7  2  0  0  0  0
  5 10  1  0  0  0  0
  6 11  1  0  0  0  0
  6 14  1  0  0  0  0
  6 15  1  0  0  0  0
  7  8  1  0  0  0  0
  7 11  1  0  0  0  0
  9 10  2  0  0  0  0
  9 13  1  0  0  0  0
M  END
> <PUBCHEM_COMPOUND_CID>
492405

> <PUBCHEM_CONFORMER_RMSD>
0.4

> <PUBCHEM_CONFORMER_DIVERSEORDER>
1
3
4
2

> <PUBCHEM_MMFF94_PARTIAL_CHARGES>
15
1 -0.15
10 0.32
11 0.63
12 0.37
13 0.15
14 0.37
15 0.37
2 -0.57
3 -0.57
4 -0.54
5 -0.62
6 -0.8
7 0.45
8 0.63
9 -0.04

> <PUBCHEM_EFFECTIVE_ROTOR_COUNT>
1

> <PUBCHEM_PHARMACOPHORE_FEATURES>
6
1 2 acceptor
1 3 acceptor
1 4 donor
1 5 acceptor
1 6 donor
6 4 5 7 8 9 10 rings

> <PUBCHEM_HEAVY_ATOM_COUNT>
11

> <PUBCHEM_ATOM_DEF_STEREO_COUNT>
0

> <PUBCHEM_ATOM_UDEF_STEREO_COUNT>
0

> <PUBCHEM_BOND_DEF_STEREO_COUNT>
0

> <PUBCHEM_BOND_UDEF_STEREO_COUNT>
0

> <PUBCHEM_ISOTOPIC_ATOM_COUNT>
0

> <PUBCHEM_COMPONENT_COUNT>
1

> <PUBCHEM_CACTVS_TAUTO_COUNT>
7

> <PUBCHEM_CONFORMER_ID>
0007837500000001

> <PUBCHEM_MMFF94_ENERGY>
18.2856

> <PUBCHEM_FEATURE_SELFOVERLAP>
30.448

> <PUBCHEM_SHAPE_FINGERPRINT>
11206711 2 18050285070258904404
13380535 21 18266196061468549502
16945 1 18338798888556382790
18185500 45 17621315736794077063
21040471 1 18410856572746250554
241688 4 17259910615709676234
2748010 2 18339647853404116318
29004967 10 18118411635212475875
5084963 1 18129647596160728709

> <PUBCHEM_SHAPE_MULTIPOLES>
192.42
3.42
1.83
0.78
0.2
0.73
-0.02
-1.39
-0.05
-0.42
0
0.52
-0.14
0.02

> <PUBCHEM_SHAPE_SELFOVERLAP>
404.254

> <PUBCHEM_SHAPE_VOLUME>
107.4

> <PUBCHEM_COORDINATE_TYPE>
2
5
10

$$$$
